35
molecule
 Au                 2.67060000    2.38930000   29.50919999
 Au                 2.67060000    2.38930000   26.67920000
 Au                 2.67060000    2.38930000   23.84919999
 Au                 2.67060000    2.38930000   21.01920001
 Au                 2.67060000    2.38930000   18.18920000
 Au                 2.67060000    2.38930000   15.35920002
 Au                 2.67060000    2.38930000   12.52920000
 Au                 2.67060000    2.38930000    9.69919999
 Au                 2.67060000    2.38930000    6.86920001
 Au                 2.67060000    2.38930000    4.03919999
 Au                 2.67060000    2.38930000    1.20920001
 Au                 2.67060000    2.38930000   60.50919999
 Au                 2.67060000    2.38930000   57.67920000
 Au                 2.67060000    2.38930000   54.84919999
 Au                 2.67060000    2.38930000   52.01920001
 Au                 2.67060000    2.38930000   49.18920000
 C                  4.15011199    2.56644421   43.54887379
 O                  5.32609529    2.68325871   43.55849294
 Au                 2.67060000    2.38930000   46.35920001
 Au                 2.67060000    2.38930000   43.52920000
 Au                 2.67060000    2.38930000   40.69919999
 Au                 2.67060000    2.38930000   37.86920001
 Au                 2.67060000    2.38930000   35.03919999
 Au                 2.67060000    2.38930000   32.20920001
 Au                 2.67060000    2.38930000   91.50919999
 Au                 2.67060000    2.38930000   88.67920000
 Au                 2.67060000    2.38930000   85.84919999
 Au                 2.67060000    2.38930000   83.01920001
 Au                 2.67060000    2.38930000   80.18920000
 Au                 2.67060000    2.38930000   77.35920001
 Au                 2.67060000    2.38930000   74.52920000
 Au                 2.67060000    2.38930000   71.69919999
 Au                 2.67060000    2.38930000   68.86920001
 Au                 2.67060000    2.38930000   66.03919999
 Au                 2.67060000    2.38930000   63.20920001

